% chk=Propane.chk
# opt hf/6-31g geom=connectivity

Title Card Required

0 1
 6                 -2.50000003    2.82894733    0.00000000
 6                 -0.99285003    2.82894733    0.00000000
 1                 -2.88981303    3.87530733    0.00000000
 1                 -2.89353203    2.30575633   -0.90491000
 1                 -2.89362503    2.30564233    0.90478800
 6                 -0.43310303    1.42961933   -0.00007200
 1                 -0.61878303    3.38166233   -0.90236800
 1                 -0.61871103    3.38160733    0.90236400
 1                  0.68316897    1.45621533   -0.00013000
 1                 -0.77278103    0.86987833    0.90480900
 1                 -0.77285803    0.86993833   -0.90496300

