%mem=8000MB
%nproc=12
#rhf/3-21g nosymm opt
 
name
 
0 1
   6                   0.765793    0.000017   -0.000033
   1                   1.163132    0.767046   -0.671096
   1                   1.163209   -0.964646   -0.328720
   1                   1.163144    0.197714    0.999741
   6                  -0.766004    0.000019    0.000032
   1                  -1.163356   -0.197479   -0.999784
   1                  -1.163344   -0.767154    0.670936
   1                  -1.163419    0.964612    0.328916

 
