% chk=Propane.chk
# opt hf/6-31g

Title Card Required

0 1
 C                 -2.50000003    2.82894733    0.00000000
 C                 -0.99285003    2.82894733    0.00000000
 H                 -2.88981303    3.87530733    0.00000000
 H                 -2.89353203    2.30575633   -0.90491000
 H                 -2.89362503    2.30564233    0.90478800
 C                 -0.43310303    1.42961933   -0.00007200
 H                 -0.61878303    3.38166233   -0.90236800
 H                 -0.61871103    3.38160733    0.90236400
 H                  0.68316897    1.45621533   -0.00013000
 H                 -0.77278103    0.86987833    0.90480900
 H                 -0.77285803    0.86993833   -0.90496300

