       8
 i =        1, E =       -14.9560726442
  C         5.7648026723        5.0000876773        4.9999602331
  H         6.1655744433        5.7692417718        4.3269961897
  H         6.1656169736        4.0326951867        4.6704200146
  H         6.1656282592        5.1983258448        6.0025061744
  C         4.2351534392        4.9999746854        5.0000784542
  H         3.8343838345        4.8019379663        3.9974840747
  H         3.8344381495        4.2306836318        5.6728998804
  H         3.8343976370        5.9673107317        5.3298130556
       8
 i =        2, E =       -14.9560861450
  C         5.7640010214        5.0000740308        4.9999515455
  H         6.1668682857        5.7700441187        4.3262311851
  H         6.1670102647        4.0316856421        4.6700683469
  H         6.1670236267        5.1986332737        6.0035167918
  C         4.2360447314        4.9999858085        5.0000848422
  H         3.8329574757        4.8016242727        3.9965120035
  H         3.8331136674        4.2299146116        5.6736441961
  H         3.8329759993        5.9682861784        5.3301410118
       8
 i =        3, E =       -14.9560862017
  C         5.7638538961        5.0001215012        4.9999222833
  H         6.1668994112        5.7700099645        4.3262027317
  H         6.1670466315        4.0317698852        4.6701094119
  H         6.1670734094        5.1986635669        6.0034259309
  C         4.2361150275        4.9999363459        5.0001128522
  H         3.8329331099        4.8015773306        3.9965602733
  H         3.8331081570        4.2299192013        5.6737054348
  H         3.8329657900        5.9682438298        5.3301059623
       8
 i =        4, E =       -14.9560862017
  C         5.7638538961        5.0001215012        4.9999222833
  H         6.1668994112        5.7700099645        4.3262027317
  H         6.1670466315        4.0317698852        4.6701094119
  H         6.1670734094        5.1986635669        6.0034259309
  C         4.2361150275        4.9999363459        5.0001128522
  H         3.8329331099        4.8015773306        3.9965602733
  H         3.8331081570        4.2299192013        5.6737054348
  H         3.8329657900        5.9682438298        5.3301059623
