%mem=8000MB
%nproc=12
#rhf/3-21g nosymm opt
 
name
 
0 1
   6    0.70279547   -0.20563058   -0.26294269
   1    1.45474663   -0.13138986    0.54317310
   1    1.02101380    0.45231570   -1.09135457
   1    0.69657812   -1.24649633   -0.63275494
   6   -0.70388113    0.20503245    0.26112765
   1   -0.61288790    0.86856725    1.13982927
   1   -1.27320669    0.74237266   -0.51821347
   1   -1.28600329   -0.68464229    0.56112664
 
