%NProcShared=4
%mem=1000MB
# RHF/6-31G nosymm force

ethane

0 1
C     -3.50284000    1.19048000    0.00000000
C     -4.84326000    1.89019000    0.00000000
H     -3.51614000    0.33440000    0.68116000
H     -2.71211000    1.87465000    0.32198000
H     -3.25807000    0.82877000   -1.00313000
H     -5.08804000    2.25189000    1.00313000
H     -5.63400000    1.20602000   -0.32198000
H     -4.82997000    2.74627000   -0.68115000



